%nprocshared=16
%mem=32GB
#p opt=(calcfc,ts,noeigentest,maxstep=5) freq=noraman b3lyp/6-31g(d)
empiricaldispersion=gd3bj

title

0 1
 C                 -0.96020400   -0.12292000    0.53338400
 O                 -0.08814100   -0.73857800    1.10834400
 C                 -1.88979300    0.88197200    1.13982500
 H                 -2.21082100    1.60942800    0.39731000
 H                 -2.76503200    0.34367100    1.52819200
 H                 -1.37198400    1.38268400    1.95913900
 Cl                -1.49556900   -0.72516700   -1.09411800
 N                  1.35594000    1.23726500   -0.41011200
 N                  0.33973700    1.82556300   -0.40295000
 N                  2.37186900    0.61106900   -0.40208300
 Na                 1.91861800   -1.39735500    0.39230700

