22
 energy: -32.973139684020 gnorm: 0.000037985248 xtb: 6.4.1 (afa7bdf)
C         2.54091471861540    0.01576392545099    1.27855387976443
O         1.91915876626929    0.49907932990853    2.20163325214578
N         3.69161225793982   -0.66980511410849    1.45871458601307
C         4.33912669381916   -0.78189772032942    2.74275848215926
C         5.85084502890826   -0.73036317231198    2.50829621400055
O         6.33699298810300   -0.94702618940181    1.41654386012819
H         4.00607997745685    0.06012082537200    3.36131971303970
H         4.25395074939172   -0.97499223853747    0.67536243004482
C         3.96845160112474   -2.10281638414406    3.43022182066042
H         4.28127590796347   -2.94230873428782    2.81340860853820
H         2.89064763086626   -2.14524919416035    3.56344755908659
H         4.44721516247930   -2.18231156642550    4.40284525459005
N         6.57303594390833   -0.45875302108228    3.61035210027114
H         6.09885483553083   -0.26445357208597    4.47764431575622
C         8.01529907046921   -0.40617778999594    3.60678000720887
H         8.36656683171158    0.58738732636345    3.89014013538496
H         8.42926314294031   -1.14369491383474    4.29657954062195
H         8.34680362554104   -0.63124767674317    2.59469251550090
C         2.10590153882935    0.09675501309426   -0.16909350347772
H         1.98058081675180   -0.90349710638505   -0.57692489674202
H         1.16401776674595    0.63337025377180   -0.23228513499182
H         2.85937829063435    0.62009803287268   -0.75340395170312
